%chk=Eu_Favi_T.chk
%nprocshared=20
%mem=64000MB
#p opt b3lyp/gen pop=full 5d 7f empiricaldispersion=gd3bj pseudo=read scf=xqc

Geometry Optimization

0 13
63       1.296000000      0.105000000      0.750000000
8        2.831000000     -0.118000000      2.562000000
1        4.762000000     -0.771000000      3.902000000
8       -0.461000000     -1.184000000      1.696000000
7        3.130000000      0.087000000     -1.029000000
6        3.937000000      1.066000000     -1.320000000
1        3.878000000      2.037000000     -0.847000000
6        4.651000000     -0.558000000     -2.560000000
6        3.575000000     -0.936000000     -1.833000000
1        3.100000000     -1.903000000     -1.799000000
6       -0.489000000     -3.212000000      2.988000000
6       -1.067000000     -4.501000000      2.950000000
1       -1.974000000     -4.637000000      2.368000000
6       -0.473000000     -5.569000000      3.626000000
6        0.647000000     -5.295000000      4.397000000
1        1.120000000     -6.099000000      4.957000000
6        1.222000000     -4.032000000      4.434000000
6        0.639000000     -2.967000000      3.714000000
8        0.862000000      2.097000000     -0.558000000
6       -0.388000000      2.112000000     -0.683000000
1       -2.656000000      2.009000000     -2.175000000
8        0.352000000     -1.142000000     -1.135000000
8       -1.860000000     -1.439000000     -0.830000000
8       -4.621000000     -1.799000000      0.046000000
7        4.884000000      0.768000000     -2.237000000
6        0.585000000     -5.056000000     -2.628000000
6       -0.474000000     -5.914000000     -2.389000000
6       -1.616000000     -5.488000000     -1.722000000
6       -1.656000000     -4.138000000     -1.352000000
1       -2.539000000     -3.734000000     -0.862000000
6       -0.621000000     -3.264000000     -1.612000000
6        0.533000000     -3.745000000     -2.221000000
1        1.354000000     -3.060000000     -2.399000000
6       -0.703000000     -1.830000000     -1.166000000
1        5.246000000     -1.092000000     -3.284000000
6       -7.940000000     -0.412000000     -3.085000000
6       -8.518000000     -1.701000000     -3.123000000
1       -9.415000000     -1.861000000     -3.715000000
6       -7.923000000     -2.768000000     -2.446000000
6       -6.804000000     -2.494000000     -1.676000000
1       -6.323000000     -3.278000000     -1.097000000
6       -6.229000000     -1.232000000     -1.639000000
6       -6.812000000     -0.166000000     -2.359000000
6       -5.030000000     -0.941000000     -0.787000000
8       -1.967000000      1.232000000      2.578000000
8        0.279000000      1.409000000      2.440000000
8        3.114000000      1.766000000      1.422000000
7       -6.452000000     -0.737000000      3.789000000
6       -2.153000000      5.086000000      4.180000000
6       -1.093000000      5.945000000      3.940000000
1       -1.170000000      6.979000000      4.269000000
6        0.049000000      5.519000000      3.273000000
6        0.089000000      4.169000000      2.904000000
1        0.970000000      3.767000000      2.408000000
6       -0.946000000      3.295000000      3.163000000
6       -2.101000000      3.776000000      3.773000000
1       -2.921000000      3.092000000      3.960000000
6       -0.865000000      1.860000000      2.718000000
1       -6.813000000      1.123000000      4.836000000
6        6.373000000      0.443000000      4.636000000
6        6.950000000      1.732000000      4.675000000
1        7.847000000      1.892000000      5.268000000
6        6.356000000      2.799000000      3.998000000
6        5.236000000      2.525000000      3.228000000
1        4.758000000      3.308000000      2.645000000
6        4.661000000      1.262000000      3.190000000
6        5.244000000      0.197000000      3.911000000
6        3.462000000      0.971000000      2.338000000
8       -2.434000000     -2.098000000      2.131000000
6       -1.179000000     -2.081000000      2.234000000
1        1.088000000     -1.978000000      3.725000000
8       -1.141000000      1.222000000     -0.161000000
7       -4.697000000     -0.056000000      2.580000000
6       -5.505000000     -1.035000000      2.871000000
1       -5.449000000     -2.004000000      2.392000000
6       -6.218000000      0.589000000      4.111000000
6       -5.143000000      0.966000000      3.385000000
1       -4.656000000      1.930000000      3.372000000
6       -1.078000000      3.243000000     -1.436000000
6       -0.500000000      4.532000000     -1.398000000
1        0.402000000      4.670000000     -0.811000000
6       -1.095000000      5.600000000     -2.075000000
6       -2.214000000      5.325000000     -2.845000000
1       -2.682000000      6.129000000     -3.410000000
6       -2.789000000      4.063000000     -2.882000000
6       -2.206000000      2.998000000     -2.162000000
63      -2.791000000     -0.153000000      0.798000000
8       -4.476000000      0.218000000     -0.863000000
1       -6.346000000      0.811000000     -2.314000000
1       -8.421000000      0.390000000     -3.639000000
1       -3.678000000      3.887000000     -3.481000000
1       -3.037000000      5.462000000      4.689000000
1        1.470000000     -5.432000000     -3.135000000
1       -0.398000000     -6.948000000     -2.718000000
1        2.110000000     -3.857000000      5.034000000
1        6.852000000     -0.361000000      5.190000000
1       -7.170000000     -1.352000000      4.137000000
1        5.593000000      1.388000000     -2.596000000
1        6.780000000      3.797000000      4.039000000
1       -0.902000000     -6.565000000      3.586000000
1       -8.350000000     -3.766000000     -2.484000000
1       -0.668000000      6.597000000     -2.030000000
1       -2.446000000     -6.154000000     -1.512000000
1        0.876000000      6.187000000      3.061000000
9        4.620000000     -6.245000000      4.040000000
8        4.943000000     -1.718000000      1.238000000
7        1.673000000     -4.396000000      0.808000000
7        5.780000000     -3.067000000      2.884000000
7        3.680000000     -4.832000000      2.537000000
8        2.271000000     -2.210000000      0.633000000
6        4.808000000     -2.804000000      2.001000000
6        5.711000000     -4.195000000      3.585000000
6        4.660000000     -5.087000000      3.368000000
6        3.702000000     -3.674000000      1.863000000
6        2.485000000     -3.353000000      1.048000000
1        6.487000000     -4.398000000      4.317000000
1        5.680000000     -1.197000000      1.610000000
1        1.795000000     -5.243000000      1.347000000
1        0.779000000     -4.213000000      0.369000000
9       -6.500000000      5.770000000      4.446000000
8       -6.558000000      1.366000000      1.437000000
7       -3.507000000      4.299000000      1.065000000
7       -7.450000000      2.570000000      3.164000000
7       -5.496000000      4.502000000      2.856000000
8       -3.945000000      2.085000000      0.798000000
6       -6.485000000      2.423000000      2.248000000
6       -7.447000000      3.667000000      3.916000000
6       -6.471000000      4.644000000      3.719000000
6       -5.449000000      3.379000000      2.127000000
6       -4.233000000      3.188000000      1.271000000
1       -8.218000000      3.777000000      4.674000000
1       -7.245000000      0.775000000      1.799000000
1       -3.677000000      5.109000000      1.647000000
1       -2.614000000      4.204000000      0.598000000

C H N O F 0
6-31G(d)
****
Eu 0
MWB28
****

Eu 0
MWB28

