!PAL16 BLYP D3BJ TZVP DEF2/J RI SCFCONV8 TIGHTSCF OPT Grid5 GridX5 NOFINALGRID

* xyz 0 1
C      -6.99611829       0.66091257      -4.65400498
C      -6.75739398      -0.69552874      -4.45969197
C      -6.79255432      -1.54672949      -5.55915859
C      -7.05260973      -1.05182300      -6.82649826
C      -7.28347866       0.30196392      -7.01059841
C      -7.25575678       1.15724677      -5.92056438
C      -6.45274119      -1.22749387      -3.10063765
C      -7.41286833      -2.05015166      -2.51989995
N      -7.31376588      -2.70468646      -1.32399473
C      -8.45023639      -3.41970753      -1.07029252
C      -9.33035320      -3.18860386      -2.17107810
C      -8.70116357      -2.36404017      -3.04937491
C      -8.69186995      -4.21891290       0.04235901
C      -9.98162456      -4.96410596       0.07623135
C     -10.22429932      -6.00574267      -0.81385913
C     -11.40268306      -6.72673129      -0.75383637
C     -12.36207046      -6.40878242       0.20014725
C     -12.13417232      -5.36043182       1.08346041
C     -10.95412131      -4.64636869       1.02101728
C     -13.63273611      -7.16074541       0.32142647
O     -13.74471683      -8.16100884      -0.57565562
H     -10.32080611      -3.60036135      -2.25791942
H      -9.08554577      -1.98363097      -3.97956842
C      -7.81831755      -4.38634458       1.12113563
C      -8.06837856      -5.31983234       2.20955246
C      -7.02706630      -5.21006977       3.05015534
C      -6.14174168      -4.20791783       2.47833395
N      -6.63978097      -3.74255691       1.30537760
H      -8.91744695      -5.97610239       2.29437404
C      -4.94913001      -3.81064097       3.08640703
C      -4.04432720      -2.89780702       2.55602091
N      -4.12591048      -2.27585156       1.34191708
C      -3.04870873      -1.45801301       1.14803938
C      -2.24618915      -1.55460527       2.32569234
C      -2.84676566      -2.42836998       3.17534750
H      -6.85168959      -5.75505268       3.96188284
C      -2.78585596      -0.69368537       0.01658833
C      -1.51981304       0.09350185       0.02091813
C      -1.55552637       1.48210104       0.10068417
C      -0.38643544       2.21981257       0.10682169
C       0.84206773       1.57390834       0.03218118
C       0.88673505       0.18741725      -0.04893643
C      -0.28477650      -0.54448103      -0.05309484
H      -1.33083536      -1.01276069       2.48772098
H      -2.50997032      -2.72727194       4.15261027
C       2.12337823       2.31833562       0.03848055
O       3.21404962       1.81345111      -0.01152079
O     -14.49492123      -6.92986529       1.12791379
C      -4.60005654      -4.40969346       4.40706099
C      -3.57501917      -5.34408901       4.50620961
C      -3.25588993      -5.91446700       5.72748172
C      -3.95741531      -5.55429731       6.86702027
C      -4.97767171      -4.62059396       6.77831023
C      -5.29717864      -4.05268870       5.55588200
C      -3.60442484      -0.61579852      -1.11331280
N      -4.81633665      -1.20391087      -1.26741444
C      -5.23743329      -0.86674165      -2.51193638
C      -4.23864287      -0.05267797      -3.18768255
C      -3.22777064       0.10705494      -2.31815063
H      -4.31025173       0.32181931      -4.19429678
H      -2.30406034       0.63900938      -2.46978952
O       1.95964900       3.65454139       0.11117914
H      -3.71043219      -6.00038977       7.82156387
H      -7.48319125       0.68925084      -8.00114231
H      -6.52385363      -2.64162028      -0.69495238
H      -4.89115861      -2.38178288       0.68854193
H      -2.46040300      -6.64596192       5.78738070
H      -3.03251236      -5.62966198       3.61403643
H      -6.09499064      -3.32446566       5.48614600
H      -5.52795457      -4.33259762       7.66461861
H     -11.57883587      -7.54339781      -1.43909192
H      -9.47075055      -6.26235851      -1.54663392
H     -10.77391112      -3.83438950       1.71286114
H     -12.89205560      -5.12054058       1.81657962
H      -7.06834896      -1.72538513      -7.67360772
H      -6.60231859      -2.60283100      -5.41721392
H      -6.97429372       1.32867292      -3.80256181
H      -7.43696878       2.21567826      -6.05548255
H       1.84907390      -0.30190644      -0.11170124
H      -0.24955685      -1.62367178      -0.12187321
H      -2.51213585       1.98365907       0.16242050
H      -0.42141072       3.29769378       0.17253733
H     -14.59711044      -8.58959226      -0.41472923
H       2.84390359       4.04720136       0.11144875
*
